%chk=ethane.chk
%nprocshared=4
%mem=6gb
# B3LYP/6-31G** FREQ FOPT

Ethane Full Optimization at B3LYP/6-31G** Level

0 1
 C                 -0.96436054    0.34591177   -0.00000002
 H                 -0.60850502   -0.66318020    0.00048868
 H                 -0.60688931    0.84974542   -0.87365096
 H                 -2.03436008    0.34677180   -0.00048923
 C                 -0.45101838    1.07186819    1.25740489
 H                 -0.80687390    2.08096016    1.25691620
 H                 -0.80848961    0.56803454    2.13105584
 H                  0.61898116    1.07100815    1.25789411

 1 2 1.0 3 1.0 4 1.0 5 1.0
 2
 3
 4
 5 6 1.0 7 1.0 8 1.0
 6
 7
 8

